resultados/CN12/cn15_60_volts.csv
Bus, BasekV, Node1, Magnitude1, Angle1, pu1, Node2, Magnitude2, Angle2, pu2, Node3, Magnitude3, Angle3, pu3
"SCN_CN15_9199_CEI77A_ATV", 13.8, 1,    7947.62,   -0.2,   0.99751, 2,    7947.62, -120.2,   0.99751, 3,    7947.62,  119.8,   0.99751
"SCN_CN15_9153_CEI109", 13.8, 1,    6878.31,   -2.7,    0.8633, 2,     6878.3, -122.7,    0.8633, 3,     6878.3,  117.3,    0.8633
"SCN_CN15_9154_CEI109", 13.8, 1,    6878.33,   -2.7,   0.86331, 2,    6878.32, -122.7,    0.8633, 3,    6878.31,  117.3,    0.8633
"SCN_CN15_9098_CEI131_ATV", 13.8, 1,    6925.69,   -2.5,   0.86925, 2,    6925.68, -122.5,   0.86925, 3,    6925.68,  117.5,   0.86925
"SCN_CN15_9097_CEI131_ATV", 13.8, 1,     6925.7,   -2.5,   0.86925, 2,    6925.69, -122.5,   0.86925, 3,    6925.68,  117.5,   0.86925
"SCN_CN15_9079_CEI201_ATV", 13.8, 1,    6978.77,   -2.3,   0.87591, 2,    6978.76, -122.3,   0.87591, 3,    6978.76,  117.7,   0.87591
"SCN_CN15_9080_CEI201_ATV", 13.8, 1,    6978.77,   -2.3,   0.87591, 2,    6978.75, -122.3,   0.87591, 3,    6978.75,  117.7,   0.87591
"SCN_CN15_9356_CEI109", 13.8, 1,     6862.7,   -2.8,   0.86134, 2,    6862.69, -122.8,   0.86134, 3,    6862.69,  117.2,   0.86134
"SCN_CN15_9349_CEI109", 13.8, 1,    6862.97,   -2.8,   0.86138, 2,    6862.96, -122.8,   0.86138, 3,    6862.96,  117.2,   0.86138
"SCN_CN15_9039_CEI201_ATV", 13.8, 1,     6863.1,   -2.8,   0.86139, 2,    6863.09, -122.8,   0.86139, 3,    6863.09,  117.2,   0.86139
"SCN_CN15_9021_CEI201_ATV", 13.8, 1,    6860.65,   -2.8,   0.86109, 2,    6860.63, -122.8,   0.86108, 3,    6860.63,  117.2,   0.86108
"SCN_CN15_9022_CEI201_ATV", 13.8, 1,    6860.76,   -2.8,    0.8611, 2,    6860.74, -122.8,    0.8611, 3,    6860.74,  117.2,    0.8611
"SCN_CN15_9274_CEI109", 13.8, 1,    6901.26,   -2.6,   0.86618, 2,    6901.25, -122.6,   0.86618, 3,    6901.24,  117.4,   0.86618
"SCN_CN15_9275_CEI109", 13.8, 1,     6900.5,   -2.7,   0.86609, 2,    6900.49, -122.7,   0.86609, 3,    6900.49,  117.3,   0.86609
"SCN_CN15_9269_CEI109", 13.8, 1,    6902.01,   -2.6,   0.86628, 2,    6901.99, -122.6,   0.86628, 3,    6901.99,  117.4,   0.86628
"SCN_CN15_9053_CEI201_ATV", 13.8, 1,     6864.3,   -2.8,   0.86155, 2,    6864.29, -122.8,   0.86154, 3,    6864.29,  117.2,   0.86154
"SCN_CN15_9485_CEI109", 13.8, 1,    6864.32,   -2.8,   0.86155, 2,     6864.3, -122.8,   0.86154, 3,     6864.3,  117.2,   0.86154
"SCN_CN15_421165_CEI", 13.8, 1,    6985.72,   -2.3,   0.87678, 2,     6985.7, -122.3,   0.87678, 3,     6985.7,  117.7,   0.87678
"SCN_CN15_421166_CEI", 13.8, 1,     6986.1,   -2.3,   0.87683, 2,    6986.09, -122.3,   0.87683, 3,    6986.09,  117.7,   0.87683
"SCN_CN15_9143_CEI69B", 13.8, 1,    6986.44,   -2.3,   0.87687, 2,    6986.43, -122.3,   0.87687, 3,    6986.43,  117.7,   0.87687
"SCN_CN15_9141_CEI201_ATV", 13.8, 1,    6985.72,   -2.3,   0.87678, 2,     6985.7, -122.3,   0.87678, 3,     6985.7,  117.7,   0.87678
"SCN_CN15_9129_CEI201_ATV", 13.8, 1,    6989.22,   -2.3,   0.87722, 2,    6989.21, -122.3,   0.87722, 3,    6989.21,  117.7,   0.87722
"SCN_CN15_9008_CEI220_ATV", 13.8, 1,    6989.22,   -2.3,   0.87722, 2,    6989.21, -122.3,   0.87722, 3,    6989.21,  117.7,   0.87722
"SCN_CN15_421168_CEI", 13.8, 1,     6921.6,   -2.6,   0.86874, 2,    6921.59, -122.6,   0.86874, 3,    6921.59,  117.4,   0.86874
"SCN_CN15_9015_CEI109", 13.8, 1,     6921.6,   -2.6,   0.86874, 2,    6921.59, -122.6,   0.86874, 3,    6921.59,  117.4,   0.86874
"SCN_CN15_421185_CEI", 13.8, 1,    6940.78,   -2.5,   0.87114, 2,    6940.77, -122.5,   0.87114, 3,    6940.77,  117.5,   0.87114
"SCN_CN15_9162_CEI220_ATV_S", 13.8, 1,    6939.79,   -2.5,   0.87102, 2,    6939.78, -122.5,   0.87102, 3,    6939.78,  117.5,   0.87102
"SCN_CN15_421186_CEI", 13.8, 1,    6941.52,   -2.5,   0.87124, 2,    6941.51, -122.5,   0.87124, 3,    6941.51,  117.5,   0.87124
"SCN_CN15_421187_CEI", 13.8, 1,    6942.39,   -2.5,   0.87135, 2,    6942.38, -122.5,   0.87134, 3,    6942.38,  117.5,   0.87134
"SCN_CN15_421169_CEI", 13.8, 1,    6943.63,   -2.5,    0.8715, 2,    6943.62, -122.5,    0.8715, 3,    6943.62,  117.5,    0.8715
"SCN_CN15_9012_CEI120", 13.8, 1,     6942.9,   -2.5,   0.87141, 2,    6942.89, -122.5,   0.87141, 3,    6942.89,  117.5,   0.87141
"SCN_CN15_421170_CEI", 13.8, 1,    6949.41,   -2.5,   0.87223, 2,     6949.4, -122.5,   0.87223, 3,     6949.4,  117.5,   0.87223
"SCN_CN15_421171_CEI", 13.8, 1,    6949.41,   -2.5,   0.87223, 2,     6949.4, -122.5,   0.87223, 3,     6949.4,  117.5,   0.87223
"SCN_CN15_421172_CEI", 13.8, 1,    6949.41,   -2.5,   0.87223, 2,     6949.4, -122.5,   0.87223, 3,     6949.4,  117.5,   0.87223
"SCN_CN15_421173_CEI", 13.8, 1,    6949.41,   -2.5,   0.87223, 2,     6949.4, -122.5,   0.87223, 3,     6949.4,  117.5,   0.87223
"SCN_CN15_421174_CEI", 13.8, 1,    6949.41,   -2.5,   0.87223, 2,     6949.4, -122.5,   0.87223, 3,     6949.4,  117.5,   0.87223
"SCN_CN15_421175_CEI", 13.8, 1,    6954.45,   -2.5,   0.87286, 2,    6954.44, -122.5,   0.87286, 3,    6954.43,  117.5,   0.87286
"SCN_CN15_421176_CEI", 13.8, 1,    6954.45,   -2.5,   0.87286, 2,    6954.44, -122.5,   0.87286, 3,    6954.43,  117.5,   0.87286
"SCN_CN15_421177_CEI", 13.8, 1,    6954.45,   -2.5,   0.87286, 2,    6954.44, -122.5,   0.87286, 3,    6954.43,  117.5,   0.87286
"SCN_CN15_421178_CEI", 13.8, 1,    6954.45,   -2.5,   0.87286, 2,    6954.44, -122.5,   0.87286, 3,    6954.43,  117.5,   0.87286
"SCN_CN15_421179_CEI", 13.8, 1,    6965.12,   -2.4,    0.8742, 2,    6965.11, -122.4,    0.8742, 3,     6965.1,  117.6,    0.8742
"SCN_CN15_9047_CEI130_ATV", 13.8, 1,       6980,   -2.4,   0.87607, 2,    6979.99, -122.4,   0.87606, 3,    6979.99,  117.6,   0.87606
"SCN_CN15_421180_CEI", 13.8, 1,       6980,   -2.4,   0.87607, 2,    6979.99, -122.4,   0.87606, 3,    6979.99,  117.6,   0.87606
"SCN_CN15_9037_CEI130_ATV", 13.8, 1,    7005.59,   -2.3,   0.87928, 2,    7005.58, -122.3,   0.87928, 3,    7005.58,  117.7,   0.87928
"SCN_CN15_9047_CEI130_ATV_S", 13.8, 1,       6980,   -2.4,   0.87607, 2,    6979.99, -122.4,   0.87606, 3,    6979.99,  117.6,   0.87606
"SCN_CN15_421181_CEI", 13.8, 1,    7011.02,   -2.3,   0.87996, 2,    7011.01, -122.3,   0.87996, 3,    7011.01,  117.7,   0.87996
"SCN_CN15_9040_CEI130_ATV", 13.8, 1,    7011.02,   -2.3,   0.87996, 2,    7011.01, -122.3,   0.87996, 3,    7011.01,  117.7,   0.87996
"SCN_CN15_421182_CEI", 13.8, 1,    7011.02,   -2.3,   0.87996, 2,    7011.01, -122.3,   0.87996, 3,    7011.01,  117.7,   0.87996
"SCN_CN15_421183_CEI", 13.8, 1,    7011.02,   -2.3,   0.87996, 2,    7011.01, -122.3,   0.87996, 3,    7011.01,  117.7,   0.87996
"SCN_CN15_421184_CEI", 13.8, 1,    7011.02,   -2.3,   0.87996, 2,    7011.01, -122.3,   0.87996, 3,    7011.01,  117.7,   0.87996
"SCN_CN15_421195_CEI", 13.8, 1,    7035.83,   -2.2,   0.88307, 2,    7035.82, -122.2,   0.88307, 3,    7035.81,  117.8,   0.88307
"SCN_CN15_9022_CEI250_ATV", 13.8, 1,    7034.76,   -2.2,   0.88294, 2,    7034.75, -122.2,   0.88294, 3,    7034.75,  117.8,   0.88294
"SCN_CN15_421196_CEI", 13.8, 1,    7037.33,   -2.2,   0.88326, 2,    7037.32, -122.2,   0.88326, 3,    7037.32,  117.8,   0.88326
"SCN_CN15_9025_CEI130_ATV", 13.8, 1,    7038.56,   -2.2,   0.88342, 2,    7038.55, -122.2,   0.88341, 3,    7038.55,  117.8,   0.88341
"SCN_CN15_421197_CEI", 13.8, 1,    6979.82,   -2.4,   0.87604, 2,    6979.81, -122.4,   0.87604, 3,    6979.81,  117.6,   0.87604
"SCN_CN15_9004_CEI160_ATV", 13.8, 1,    6979.82,   -2.4,   0.87604, 2,    6979.81, -122.4,   0.87604, 3,    6979.81,  117.6,   0.87604
"SCN_CN15_9005_CEI160_ATV", 13.8, 1,    6979.82,   -2.4,   0.87604, 2,    6979.81, -122.4,   0.87604, 3,    6979.81,  117.6,   0.87604
"SCN_CN15_9017_CEI130A_ATV", 13.8, 1,    7142.81,   -1.9,    0.8965, 2,     7142.8, -121.9,    0.8965, 3,     7142.8,  118.1,    0.8965
"SCN_CN15_421206_CEI", 13.8, 1,    7142.81,   -1.9,    0.8965, 2,     7142.8, -121.9,    0.8965, 3,     7142.8,  118.1,    0.8965
"SCN_CN15_9034_CEI130A_ATV", 13.8, 1,    7142.14,   -1.9,   0.89642, 2,    7142.13, -121.9,   0.89642, 3,    7142.13,  118.1,   0.89642
"SCN_CN15_421207_CEI", 13.8, 1,    7142.14,   -1.9,   0.89642, 2,    7142.13, -121.9,   0.89642, 3,    7142.13,  118.1,   0.89642
"SCN_CN15_421208_CEI", 13.8, 1,    7142.14,   -1.9,   0.89642, 2,    7142.13, -121.9,   0.89642, 3,    7142.13,  118.1,   0.89642
"SCN_CN15_421209_CEI", 13.8, 1,    7142.14,   -1.9,   0.89642, 2,    7142.13, -121.9,   0.89642, 3,    7142.13,  118.1,   0.89642
"SCN_CN15_421210_CEI", 13.8, 1,    7142.14,   -1.9,   0.89642, 2,    7142.13, -121.9,   0.89642, 3,    7142.13,  118.1,   0.89642
"SCN_CN15_421211_CEI", 13.8, 1,    7142.14,   -1.9,   0.89642, 2,    7142.13, -121.9,   0.89642, 3,    7142.13,  118.1,   0.89642
"SCN_CN15_421212_CEI", 13.8, 1,    7142.14,   -1.9,   0.89642, 2,    7142.13, -121.9,   0.89642, 3,    7142.13,  118.1,   0.89642
"SCN_CN15_9040_CEI130A_ATV", 13.8, 1,    7142.09,   -1.9,   0.89641, 2,    7142.08, -121.9,   0.89641, 3,    7142.08,  118.1,   0.89641
"SCN_CN15_421213_CEI", 13.8, 1,    7142.09,   -1.9,   0.89641, 2,    7142.08, -121.9,   0.89641, 3,    7142.08,  118.1,   0.89641
"SCN_CN15_421218_CEI", 13.8, 1,    7145.93,   -1.9,   0.89689, 2,    7145.92, -121.9,   0.89689, 3,    7145.92,  118.1,   0.89689
"SCN_CN15_9353_CEI065", 13.8, 1,    7145.93,   -1.9,   0.89689, 2,    7145.92, -121.9,   0.89689, 3,    7145.92,  118.1,   0.89689
"SCN_CN15_421219_CEI", 13.8, 1,    7145.93,   -1.9,   0.89689, 2,    7145.92, -121.9,   0.89689, 3,    7145.92,  118.1,   0.89689
"CN_ALCN15", 13.8, 1,    7145.93,   -1.9,   0.89689, 2,    7145.92, -121.9,   0.89689, 3,    7145.92,  118.1,   0.89689
"SCN_CN15_421227_CEI", 13.8, 1,    6919.34,   -2.4,   0.86845, 2,    6919.33, -122.4,   0.86845, 3,    6919.32,  117.6,   0.86845
"SCN_CN15_9006_CEIRJ013_ATV", 13.8, 1,    6919.34,   -2.4,   0.86845, 2,    6919.33, -122.4,   0.86845, 3,    6919.32,  117.6,   0.86845
"SCN_CN15_9067_CEIRJ006_ATV", 13.8, 1,    6921.11,   -2.4,   0.86867, 2,     6921.1, -122.4,   0.86867, 3,    6921.09,  117.6,   0.86867
"SCN_CN15_9064_CEIRJ006_ATV", 13.8, 1,    6921.11,   -2.4,   0.86867, 2,     6921.1, -122.4,   0.86867, 3,    6921.09,  117.6,   0.86867
"SCN_CN15_421241_CEI", 13.8, 1,    6921.11,   -2.4,   0.86867, 2,     6921.1, -122.4,   0.86867, 3,    6921.09,  117.6,   0.86867
"SCN_CN15_9068_CEIRJ006_ATV", 13.8, 1,    6921.11,   -2.4,   0.86867, 2,     6921.1, -122.4,   0.86867, 3,    6921.09,  117.6,   0.86867
"SCN_CN15_9050_CEI160_ATV", 13.8, 1,    7515.99,   -1.2,   0.94334, 2,    7515.98, -121.2,   0.94334, 3,    7515.98,  118.8,   0.94334
"SCN_CN15_9014_CEI077_ATV", 13.8, 1,    7516.37,   -1.2,   0.94339, 2,    7516.37, -121.2,   0.94339, 3,    7516.37,  118.8,   0.94339
"SCN_CN15_9052_CEI160_ATV", 13.8, 1,    7515.99,   -1.2,   0.94334, 2,    7515.98, -121.2,   0.94334, 3,    7515.98,  118.8,   0.94334
"SCN_CN15_421244_CEI", 13.8, 1,    7515.62,   -1.2,   0.94329, 2,    7515.62, -121.2,   0.94329, 3,    7515.62,  118.8,   0.94329
"SCN_CN15_421245_CEI", 13.8, 1,    7515.24,   -1.2,   0.94325, 2,    7515.24, -121.2,   0.94324, 3,    7515.24,  118.8,   0.94324
"SCN_CN15_9005_CEIRJ012_ATV_S", 13.8, 1,    7514.88,   -1.2,    0.9432, 2,    7514.87, -121.2,    0.9432, 3,    7514.88,  118.8,    0.9432
"SCN_CN15_9024_CEI167_ATV", 13.8, 1,    7536.17,   -1.1,   0.94587, 2,    7536.16, -121.1,   0.94587, 3,    7536.16,  118.9,   0.94587
"SCN_CN15_9025_CEI167_ATV", 13.8, 1,    7536.17,   -1.1,   0.94587, 2,    7536.16, -121.1,   0.94587, 3,    7536.16,  118.9,   0.94587
"SCN_CN15_9002_CEIRJ013_ATV", 13.8, 1,    7536.17,   -1.1,   0.94587, 2,    7536.16, -121.1,   0.94587, 3,    7536.16,  118.9,   0.94587
"SCN_CN15_9037_CEI77A_ATV", 13.8, 1,       7544,   -1.1,   0.94685, 2,    7543.99, -121.1,   0.94685, 3,       7544,  118.9,   0.94685
"SCN_CN15_9035_CEIRJ006_ATV", 13.8, 1,       7544,   -1.1,   0.94685, 2,    7543.99, -121.1,   0.94685, 3,       7544,  118.9,   0.94685
"SCN_CN15_9036_CEIRJ006_ATV", 13.8, 1,       7544,   -1.1,   0.94685, 2,    7543.99, -121.1,   0.94685, 3,       7544,  118.9,   0.94685
"SCN_CN15_9105_CEI201_ATV", 13.8, 1,    6978.26,   -2.3,   0.87585, 2,    6978.25, -122.3,   0.87585, 3,    6978.25,  117.7,   0.87585
"SCN_CN15_9102_CEI201_ATV_S", 13.8, 1,    6978.21,   -2.3,   0.87584, 2,     6978.2, -122.3,   0.87584, 3,     6978.2,  117.7,   0.87584
"SCN_CN15_9017_CEI201_ATV", 13.8, 1,    6860.29,   -2.8,   0.86104, 2,    6860.27, -122.8,   0.86104, 3,    6860.27,  117.2,   0.86104
"SCN_CN15_9019_CEI201_ATV", 13.8, 1,    6860.36,   -2.8,   0.86105, 2,    6860.35, -122.8,   0.86105, 3,    6860.35,  117.2,   0.86105
"SCN_CN15_9019_CEI134C_ATV", 13.8, 1,    6897.25,   -2.6,   0.86568, 2,    6897.24, -122.6,   0.86568, 3,    6897.24,  117.4,   0.86568
"SCN_CN15_9020_CEI134C_ATV", 13.8, 1,    6897.24,   -2.6,   0.86568, 2,    6897.23, -122.6,   0.86568, 3,    6897.23,  117.4,   0.86568
"SCN_CN15_9022_CEI134C_ATV", 13.8, 1,    6897.13,   -2.6,   0.86567, 2,    6897.12, -122.6,   0.86566, 3,    6897.12,  117.4,   0.86566
"SCN_CN15_9021_CEI134C_ATV", 13.8, 1,     6897.1,   -2.6,   0.86566, 2,    6897.09, -122.6,   0.86566, 3,    6897.09,  117.4,   0.86566
"SCN_CN15_9023_CEI134C_ATV", 13.8, 1,    6897.09,   -2.6,   0.86566, 2,    6897.07, -122.6,   0.86566, 3,    6897.07,  117.4,   0.86566
"SCN_CN15_9034_CEI134C_ATV", 13.8, 1,    6897.05,   -2.6,   0.86566, 2,    6897.04, -122.6,   0.86565, 3,    6897.04,  117.4,   0.86565
"SCN_CN15_9035_CEI134C_ATV", 13.8, 1,    6897.03,   -2.6,   0.86565, 2,    6897.01, -122.6,   0.86565, 3,    6897.01,  117.4,   0.86565
"SCN_CN15_9036_CEI134C_ATV", 13.8, 1,       6897,   -2.6,   0.86565, 2,    6896.99, -122.6,   0.86565, 3,    6896.99,  117.4,   0.86565
"SCN_CN15_9024_CEI134B_ATV", 13.8, 1,    6899.17,   -2.6,   0.86592, 2,    6899.16, -122.6,   0.86592, 3,    6899.15,  117.4,   0.86592
"SCN_CN15_9027_CEI134B_ATV", 13.8, 1,    6899.15,   -2.6,   0.86592, 2,    6899.14, -122.6,   0.86592, 3,    6899.14,  117.4,   0.86592
"SCN_CN15_9026_CEI134B_ATV", 13.8, 1,    6899.14,   -2.6,   0.86592, 2,    6899.13, -122.6,   0.86592, 3,    6899.13,  117.4,   0.86592
"SCN_CN15_9028_CEI134B_ATV", 13.8, 1,    6899.14,   -2.6,   0.86592, 2,    6899.12, -122.6,   0.86592, 3,    6899.12,  117.4,   0.86592
"SCN_CN15_9011_CEI134_ATV", 13.8, 1,    6908.76,   -2.6,   0.86712, 2,    6908.74, -122.6,   0.86712, 3,    6908.74,  117.4,   0.86712
"SCN_CN15_9009_CEI134A_ATV", 13.8, 1,    6908.33,   -2.6,   0.86707, 2,    6908.31, -122.6,   0.86707, 3,    6908.31,  117.4,   0.86707
"SCN_CN15_9002_CEI134_ATV", 13.8, 1,    6909.81,   -2.6,   0.86726, 2,     6909.8, -122.6,   0.86725, 3,    6909.79,  117.4,   0.86725
"SCN_CN15_9003_CEI134_ATV", 13.8, 1,    6909.82,   -2.6,   0.86726, 2,    6909.81, -122.6,   0.86726, 3,    6909.81,  117.4,   0.86726
"SCN_CN15_9101_CEI109", 13.8, 1,    6911.33,   -2.6,   0.86745, 2,    6911.31, -122.6,   0.86745, 3,    6911.31,  117.4,   0.86745
"SCN_CN15_9102_CEI109", 13.8, 1,     6911.3,   -2.6,   0.86744, 2,    6911.29, -122.6,   0.86744, 3,    6911.29,  117.4,   0.86744
"SCN_CN15_9103_CEI109", 13.8, 1,    6911.29,   -2.6,   0.86744, 2,    6911.27, -122.6,   0.86744, 3,    6911.27,  117.4,   0.86744
"SCN_CN15_9104_CEI109", 13.8, 1,    6911.27,   -2.6,   0.86744, 2,    6911.26, -122.6,   0.86744, 3,    6911.26,  117.4,   0.86744
"SCN_CN15_9105_CEI109", 13.8, 1,    6911.25,   -2.6,   0.86744, 2,    6911.24, -122.6,   0.86744, 3,    6911.24,  117.4,   0.86744
"SCN_CN15_9106_CEI109", 13.8, 1,    6911.24,   -2.6,   0.86744, 2,    6911.23, -122.6,   0.86743, 3,    6911.23,  117.4,   0.86743
"SCN_CN15_9108_CEI109", 13.8, 1,    6911.22,   -2.6,   0.86743, 2,    6911.21, -122.6,   0.86743, 3,    6911.21,  117.4,   0.86743
"SCN_CN15_9109_CEI109", 13.8, 1,     6911.2,   -2.6,   0.86743, 2,    6911.19, -122.6,   0.86743, 3,    6911.19,  117.4,   0.86743
"SCN_CN15_9110_CEI109", 13.8, 1,    6911.19,   -2.6,   0.86743, 2,    6911.17, -122.6,   0.86743, 3,    6911.17,  117.4,   0.86743
"SCN_CN15_9111_CEI109", 13.8, 1,    6911.17,   -2.6,   0.86743, 2,    6911.16, -122.6,   0.86743, 3,    6911.16,  117.4,   0.86743
"SCN_CN15_9112_CEI109", 13.8, 1,    6911.16,   -2.6,   0.86743, 2,    6911.15, -122.6,   0.86742, 3,    6911.15,  117.4,   0.86742
"SCN_CN15_9113_CEI109", 13.8, 1,    6911.15,   -2.6,   0.86742, 2,    6911.14, -122.6,   0.86742, 3,    6911.13,  117.4,   0.86742
"SCN_CN15_9114_CEI109", 13.8, 1,    6911.13,   -2.6,   0.86742, 2,    6911.12, -122.6,   0.86742, 3,    6911.12,  117.4,   0.86742
"SCN_CN15_9115_CEI109", 13.8, 1,     6911.1,   -2.6,   0.86742, 2,    6911.09, -122.6,   0.86742, 3,    6911.09,  117.4,   0.86742
"SCN_CN15_9116_CEI109", 13.8, 1,    6911.09,   -2.6,   0.86742, 2,    6911.08, -122.6,   0.86742, 3,    6911.08,  117.4,   0.86742
"SCN_CN15_9010_CEI120", 13.8, 1,     6941.6,   -2.5,   0.87125, 2,    6941.59, -122.5,   0.87124, 3,    6941.58,  117.5,   0.87124
"SCN_CN15_9011_CEI120", 13.8, 1,    6942.64,   -2.5,   0.87138, 2,    6942.63, -122.5,   0.87138, 3,    6942.63,  117.5,   0.87138
"SCN_CN15_9045_CEI130_ATV", 13.8, 1,    6979.95,   -2.4,   0.87606, 2,    6979.94, -122.4,   0.87606, 3,    6979.94,  117.6,   0.87606
"SCN_CN15_9044_CEI130_ATV", 13.8, 1,    6979.94,   -2.4,   0.87606, 2,    6979.93, -122.4,   0.87606, 3,    6979.93,  117.6,   0.87606
"SCN_CN15_9043_CEI130_ATV", 13.8, 1,    6979.91,   -2.4,   0.87605, 2,    6979.89, -122.4,   0.87605, 3,    6979.89,  117.6,   0.87605
"SCN_CN15_9014_CEI69B", 13.8, 1,    7046.52,   -2.1,   0.88442, 2,    7046.51, -122.1,   0.88441, 3,    7046.51,  117.9,   0.88441
"SCN_CN15_9015_CEI69B", 13.8, 1,    7046.91,   -2.1,   0.88446, 2,     7046.9, -122.1,   0.88446, 3,     7046.9,  117.9,   0.88446
"SCN_CN15_9559_CEI109", 13.8, 1,    6906.18,   -2.6,    0.8668, 2,    6906.16, -122.6,    0.8668, 3,    6906.16,  117.4,    0.8668
"SCN_CN15_9570_CEI109", 13.8, 1,    6906.17,   -2.6,    0.8668, 2,    6906.16, -122.6,    0.8668, 3,    6906.16,  117.4,    0.8668
"SCN_CN15_9558_CEI109", 13.8, 1,    6909.04,   -2.6,   0.86716, 2,    6909.03, -122.6,   0.86716, 3,    6909.03,  117.4,   0.86716
"SCN_CN15_9560_CEI109", 13.8, 1,    6904.06,   -2.6,   0.86654, 2,    6904.05, -122.6,   0.86653, 3,    6904.05,  117.4,   0.86653
"SCN_CN15_9555_CEI109", 13.8, 1,    6912.34,   -2.6,   0.86757, 2,    6912.32, -122.6,   0.86757, 3,    6912.32,  117.4,   0.86757
"SCN_CN15_9552_CEI109", 13.8, 1,    6914.77,   -2.6,   0.86788, 2,    6914.75, -122.6,   0.86788, 3,    6914.75,  117.4,   0.86788
"SCN_CN15_9550_CEI109", 13.8, 1,    6916.89,   -2.6,   0.86815, 2,    6916.88, -122.6,   0.86814, 3,    6916.88,  117.4,   0.86814
"SCN_CN15_9548_CEI109", 13.8, 1,    6918.92,   -2.6,    0.8684, 2,    6918.91, -122.6,    0.8684, 3,    6918.91,  117.4,    0.8684
"SCN_CN15_9017_CEI109", 13.8, 1,    6921.69,   -2.6,   0.86875, 2,    6921.68, -122.6,   0.86875, 3,    6921.68,  117.4,   0.86875
"SCN_CN15_9548_CEI109_S", 13.8, 1,    6918.92,   -2.6,    0.8684, 2,    6918.91, -122.6,    0.8684, 3,    6918.91,  117.4,    0.8684
"SCN_CN15_9016_CEI109", 13.8, 1,    6921.64,   -2.6,   0.86874, 2,    6921.62, -122.6,   0.86874, 3,    6921.62,  117.4,   0.86874
"SCN_CN15_9014_CEI109", 13.8, 1,    6921.55,   -2.6,   0.86873, 2,    6921.54, -122.6,   0.86873, 3,    6921.54,  117.4,   0.86873
"SCN_CN15_9013_CEI109", 13.8, 1,    6921.51,   -2.6,   0.86873, 2,     6921.5, -122.6,   0.86872, 3,     6921.5,  117.4,   0.86872
"SCN_CN15_9012_CEI109", 13.8, 1,    6921.46,   -2.6,   0.86872, 2,    6921.44, -122.6,   0.86872, 3,    6921.44,  117.4,   0.86872
"SCN_CN15_9008_CEI109", 13.8, 1,    6921.41,   -2.6,   0.86871, 2,     6921.4, -122.6,   0.86871, 3,     6921.4,  117.4,   0.86871
"SCN_CN15_9009_CEI109", 13.8, 1,    6921.39,   -2.6,   0.86871, 2,    6921.37, -122.6,   0.86871, 3,    6921.37,  117.4,   0.86871
"SCN_CN15_9010_CEI109", 13.8, 1,    6921.37,   -2.6,   0.86871, 2,    6921.36, -122.6,   0.86871, 3,    6921.36,  117.4,   0.86871
"SCN_CN15_9011_CEI109", 13.8, 1,    6921.35,   -2.6,    0.8687, 2,    6921.33, -122.6,    0.8687, 3,    6921.33,  117.4,    0.8687
"SCN_CN15_9547_CEI109", 13.8, 1,    6918.88,   -2.6,    0.8684, 2,    6918.87, -122.6,   0.86839, 3,    6918.87,  117.4,   0.86839
"SCN_CN15_9007_CEI109", 13.8, 1,    6921.39,   -2.6,   0.86871, 2,    6921.38, -122.6,   0.86871, 3,    6921.38,  117.4,   0.86871
"SCN_CN15_9006_CEI109", 13.8, 1,    6921.38,   -2.6,   0.86871, 2,    6921.37, -122.6,   0.86871, 3,    6921.37,  117.4,   0.86871
"SCN_CN15_9005_CEI109", 13.8, 1,    6921.37,   -2.6,   0.86871, 2,    6921.35, -122.6,   0.86871, 3,    6921.35,  117.4,   0.86871
"SCN_CN15_9004_CEI109", 13.8, 1,    6921.36,   -2.6,   0.86871, 2,    6921.34, -122.6,    0.8687, 3,    6921.34,  117.4,    0.8687
"SCN_CN15_9002_CEI109", 13.8, 1,    6989.46,   -2.3,   0.87725, 2,    6989.45, -122.3,   0.87725, 3,    6989.45,  117.7,   0.87725
"SCN_CN15_9003_CEI109", 13.8, 1,    6989.46,   -2.3,   0.87725, 2,    6989.45, -122.3,   0.87725, 3,    6989.45,  117.7,   0.87725
"SCN_CN15_9001_CEI109", 13.8, 1,    6989.46,   -2.3,   0.87725, 2,    6989.45, -122.3,   0.87725, 3,    6989.45,  117.7,   0.87725
"SCN_CN15_9122_CEI201_ATV", 13.8, 1,    6989.46,   -2.3,   0.87725, 2,    6989.45, -122.3,   0.87725, 3,    6989.45,  117.7,   0.87725
"SCN_CN15_9241_CEI109", 13.8, 1,    6879.25,   -2.7,   0.86342, 2,    6879.24, -122.7,   0.86342, 3,    6879.24,  117.3,   0.86342
"SCN_CN15_9204_CEI109", 13.8, 1,    6879.25,   -2.7,   0.86342, 2,    6879.24, -122.7,   0.86342, 3,    6879.24,  117.3,   0.86342
"SCN_CN15_9242_CEI109", 13.8, 1,    6879.24,   -2.7,   0.86342, 2,    6879.23, -122.7,   0.86342, 3,    6879.23,  117.3,   0.86342
"SCN_CN15_9243_CEI109", 13.8, 1,    6879.24,   -2.7,   0.86342, 2,    6879.23, -122.7,   0.86342, 3,    6879.22,  117.3,   0.86342
"SCN_CN15_9244_CEI109", 13.8, 1,    6879.23,   -2.7,   0.86342, 2,    6879.22, -122.7,   0.86342, 3,    6879.22,  117.3,   0.86342
"SCN_CN15_9245_CEI109", 13.8, 1,    6879.22,   -2.7,   0.86342, 2,    6879.21, -122.7,   0.86342, 3,    6879.21,  117.3,   0.86342
"SCN_CN15_9190_CEI109", 13.8, 1,    6878.64,   -2.7,   0.86335, 2,    6878.63, -122.7,   0.86334, 3,    6878.63,  117.3,   0.86334
"SCN_CN15_9191_CEI109", 13.8, 1,    6878.63,   -2.7,   0.86334, 2,    6878.62, -122.7,   0.86334, 3,    6878.62,  117.3,   0.86334
"SCN_CN15_9166_CEI109", 13.8, 1,    6878.62,   -2.7,   0.86334, 2,     6878.6, -122.7,   0.86334, 3,     6878.6,  117.3,   0.86334
"SCN_CN15_9167_CEI109", 13.8, 1,    6878.61,   -2.7,   0.86334, 2,     6878.6, -122.7,   0.86334, 3,     6878.6,  117.3,   0.86334
"SCN_CN15_9168_CEI109", 13.8, 1,    6878.61,   -2.7,   0.86334, 2,     6878.6, -122.7,   0.86334, 3,     6878.6,  117.3,   0.86334
"SCN_CN15_9169_CEI109", 13.8, 1,     6878.6,   -2.7,   0.86334, 2,    6878.59, -122.7,   0.86334, 3,    6878.59,  117.3,   0.86334
"SCN_CN15_9183_CEI109", 13.8, 1,     6878.6,   -2.7,   0.86334, 2,    6878.58, -122.7,   0.86334, 3,    6878.58,  117.3,   0.86334
"SCN_CN15_9330_CEI109", 13.8, 1,    6864.11,   -2.8,   0.86152, 2,    6864.09, -122.8,   0.86152, 3,    6864.09,  117.2,   0.86152
"SCN_CN15_9329_CEI109", 13.8, 1,    6864.39,   -2.8,   0.86156, 2,    6864.37, -122.8,   0.86155, 3,    6864.37,  117.2,   0.86155
"SCN_CN15_9328_CEI109", 13.8, 1,    6864.58,   -2.8,   0.86158, 2,    6864.56, -122.8,   0.86158, 3,    6864.56,  117.2,   0.86158
"SCN_CN15_9165_CEI068", 13.8, 1,       7084,   -2.1,   0.88912, 2,    7083.99, -122.1,   0.88912, 3,    7083.99,  117.9,   0.88912
"SCN_CN15_9166_CEI068", 13.8, 1,    7083.97,   -2.1,   0.88912, 2,    7083.96, -122.1,   0.88911, 3,    7083.96,  117.9,   0.88911
"SCN_CN15_9327_CEI109", 13.8, 1,    6864.91,   -2.8,   0.86162, 2,     6864.9, -122.8,   0.86162, 3,     6864.9,  117.2,   0.86162
"SCN_CN15_9399_CEI109", 13.8, 1,    6865.23,   -2.8,   0.86166, 2,    6865.22, -122.8,   0.86166, 3,    6865.22,  117.2,   0.86166
"SCN_CN15_9029_CEI160_ATV", 13.8, 1,    6865.21,   -2.8,   0.86166, 2,     6865.2, -122.8,   0.86166, 3,     6865.2,  117.2,   0.86166
"SCN_CN15_9057_CEI075", 13.8, 1,    6936.27,   -2.4,   0.87058, 2,    6936.26, -122.4,   0.87058, 3,    6936.26,  117.6,   0.87058
"SCN_CN15_9054_CEIRJ006_ATV", 13.8, 1,    6936.27,   -2.4,   0.87058, 2,    6936.25, -122.4,   0.87058, 3,    6936.25,  117.6,   0.87058
"SCN_CN15_9040_CEI77A_ATV", 13.8, 1,    7543.91,   -1.1,   0.94684, 2,     7543.9, -121.1,   0.94684, 3,    7543.91,  118.9,   0.94684
"SCN_CN15_9042_CEI77A_ATV", 13.8, 1,    7543.89,   -1.1,   0.94684, 2,    7543.89, -121.1,   0.94684, 3,    7543.89,  118.9,   0.94684
"SCN_CN15_9043_CEI77A_ATV", 13.8, 1,    7543.88,   -1.1,   0.94684, 2,    7543.87, -121.1,   0.94684, 3,    7543.87,  118.9,   0.94684
"SCN_CN15_9190_CEI77A_ATV", 13.8, 1,     7897.7,   -0.3,   0.99125, 2,     7897.7, -120.3,   0.99125, 3,     7897.7,  119.7,   0.99125
"SCN_CN15_9194_CEI77A_ATV", 13.8, 1,    7904.58,   -0.3,   0.99211, 2,    7904.58, -120.3,   0.99211, 3,    7904.58,  119.7,   0.99211
"SCN_CN15_9195_CEI77A_ATV", 13.8, 1,    7916.26,   -0.3,   0.99358, 2,    7916.26, -120.3,   0.99358, 3,    7916.26,  119.7,   0.99358
"SCN_CN15_9196_CEI77A_ATV", 13.8, 1,    7927.87,   -0.2,   0.99503, 2,    7927.87, -120.2,   0.99503, 3,    7927.87,  119.8,   0.99503
"SCN_CN15_9197_CEI77A_ATV", 13.8, 1,    7940.46,   -0.2,   0.99661, 2,    7940.46, -120.2,   0.99661, 3,    7940.46,  119.8,   0.99661
"SCN_CN15_9198_CEI77A_ATV", 13.8, 1,    7944.35,   -0.2,    0.9971, 2,    7944.34, -120.2,    0.9971, 3,    7944.34,  119.8,    0.9971
"SCN_CN15_9200_CEI77A_ATV", 13.8, 1,    7783.99,   -0.6,   0.97698, 2,    7783.98, -120.6,   0.97698, 3,    7783.98,  119.4,   0.97698
"SCN_CN15_9201_CEI77A_ATV", 13.8, 1,       7784,   -0.6,   0.97698, 2,       7784, -120.6,   0.97698, 3,       7784,  119.4,   0.97698
"SCN_CN15_9039_CEI076", 13.8, 1,     7152.7,   -1.9,   0.89774, 2,    7152.69, -121.9,   0.89774, 3,    7152.69,  118.1,   0.89774
"SCN_CN15_9041_CEI076", 13.8, 1,     7152.7,   -1.9,   0.89774, 2,    7152.69, -121.9,   0.89774, 3,    7152.69,  118.1,   0.89774
"SCN_CN15_9042_CEI076", 13.8, 1,     7152.7,   -1.9,   0.89774, 2,    7152.69, -121.9,   0.89774, 3,    7152.69,  118.1,   0.89774
"SCN_CN15_9044_CEI076", 13.8, 1,     7152.7,   -1.9,   0.89774, 2,    7152.69, -121.9,   0.89774, 3,    7152.69,  118.1,   0.89774
"SCN_CN15_9045_CEI076", 13.8, 1,     7152.7,   -1.9,   0.89774, 2,    7152.69, -121.9,   0.89774, 3,    7152.69,  118.1,   0.89774
"SCN_CN15_9057_CEI068", 13.8, 1,     7149.4,   -1.9,   0.89733, 2,    7149.39, -121.9,   0.89733, 3,    7149.39,  118.1,   0.89733
"SCN_CN15_9058_CEI068", 13.8, 1,     7149.4,   -1.9,   0.89733, 2,    7149.39, -121.9,   0.89733, 3,    7149.39,  118.1,   0.89733
"SCN_CN15_9236_CEI068", 13.8, 1,    7149.39,   -1.9,   0.89733, 2,    7149.39, -121.9,   0.89733, 3,    7149.39,  118.1,   0.89733
"SCN_CN15_9240_CEI068", 13.8, 1,    7149.39,   -1.9,   0.89733, 2,    7149.38, -121.9,   0.89733, 3,    7149.38,  118.1,   0.89733
"SCN_CN15_9063_CEI072", 13.8, 1,    7432.42,   -1.4,   0.93285, 2,    7432.41, -121.4,   0.93285, 3,    7432.41,  118.6,   0.93285
"SCN_CN15_CEI_FL_MT_37442", 13.8, 1,    7432.48,   -1.4,   0.93286, 2,    7432.48, -121.4,   0.93286, 3,    7432.48,  118.6,   0.93286
"SCN_CN15_9088_CEI072", 13.8, 1,    7432.48,   -1.4,   0.93286, 2,    7432.48, -121.4,   0.93286, 3,    7432.48,  118.6,   0.93286
"SCN_CN15_9089_CEI072", 13.8, 1,    7434.75,   -1.3,   0.93314, 2,    7434.74, -121.3,   0.93314, 3,    7434.74,  118.7,   0.93314
"SCN_CN15_9062_CEI072", 13.8, 1,    7429.62,   -1.4,    0.9325, 2,    7429.61, -121.4,    0.9325, 3,    7429.61,  118.6,    0.9325
"SCN_CN15_9061_CEI071", 13.8, 1,    7322.43,   -1.6,   0.91905, 2,    7322.42, -121.6,   0.91904, 3,    7322.43,  118.4,   0.91904
"SCN_CN15_9072_CEI071", 13.8, 1,    7322.41,   -1.6,   0.91904, 2,     7322.4, -121.6,   0.91904, 3,     7322.4,  118.4,   0.91904
"SCN_CN15_9073_CEI071", 13.8, 1,    7322.39,   -1.6,   0.91904, 2,    7322.38, -121.6,   0.91904, 3,    7322.38,  118.4,   0.91904
"SCN_CN15_9075_CEI071", 13.8, 1,    7322.37,   -1.6,   0.91904, 2,    7322.36, -121.6,   0.91904, 3,    7322.36,  118.4,   0.91904
"SCN_CN15_9078_CEI071", 13.8, 1,    7322.35,   -1.6,   0.91904, 2,    7322.35, -121.6,   0.91903, 3,    7322.35,  118.4,   0.91903
"SCN_CN15_9079_CEI071", 13.8, 1,    7322.33,   -1.6,   0.91903, 2,    7322.32, -121.6,   0.91903, 3,    7322.32,  118.4,   0.91903
"SCN_CN15_9080_CEI071", 13.8, 1,    7322.32,   -1.6,   0.91903, 2,    7322.31, -121.6,   0.91903, 3,    7322.31,  118.4,   0.91903
"SCN_CN15_9081_CEI071", 13.8, 1,     7322.3,   -1.6,   0.91903, 2,    7322.29, -121.6,   0.91903, 3,    7322.29,  118.4,   0.91903
"SCN_CN15_9082_CEI071", 13.8, 1,    7322.28,   -1.6,   0.91903, 2,    7322.27, -121.6,   0.91902, 3,    7322.27,  118.4,   0.91902
"SCN_CN15_9083_CEI071", 13.8, 1,    7322.26,   -1.6,   0.91902, 2,    7322.25, -121.6,   0.91902, 3,    7322.25,  118.4,   0.91902
"SCN_CN15_9084_CEI071", 13.8, 1,    7322.24,   -1.6,   0.91902, 2,    7322.23, -121.6,   0.91902, 3,    7322.23,  118.4,   0.91902
"SCN_CN15_9145_CEI220_ATV", 13.8, 1,     6938.2,   -2.5,   0.87082, 2,    6938.18, -122.5,   0.87082, 3,    6938.18,  117.5,   0.87082
"SCN_CN15_9146_CEI220_ATV", 13.8, 1,    6938.15,   -2.5,   0.87081, 2,    6938.13, -122.5,   0.87081, 3,    6938.13,  117.5,   0.87081
"SCN_CN15_9004_CEI220_ATV", 13.8, 1,    6989.36,   -2.3,   0.87724, 2,    6989.35, -122.3,   0.87724, 3,    6989.35,  117.7,   0.87724
"SCN_CN15_9005_CEI220_ATV", 13.8, 1,    6989.36,   -2.3,   0.87724, 2,    6989.35, -122.3,   0.87724, 3,    6989.35,  117.7,   0.87724
"SCN_CN15_9088_CEI201_ATV", 13.8, 1,    6984.96,   -2.3,   0.87669, 2,    6984.94, -122.3,   0.87669, 3,    6984.94,  117.7,   0.87669
"SCN_CN15_9089_CEI201_ATV", 13.8, 1,    6984.96,   -2.3,   0.87669, 2,    6984.95, -122.3,   0.87669, 3,    6984.95,  117.7,   0.87669
"SCN_CN15_9016_CEIRJ003", 13.8, 1,     6985.3,   -2.3,   0.87673, 2,    6985.29, -122.3,   0.87673, 3,    6985.29,  117.7,   0.87673
"SCN_CN15_9089_CEI201_ATV_S", 13.8, 1,    6984.96,   -2.3,   0.87669, 2,    6984.95, -122.3,   0.87669, 3,    6984.95,  117.7,   0.87669
"SCN_CN15_9123_CEI69B", 13.8, 1,    6984.45,   -2.3,   0.87662, 2,    6984.44, -122.3,   0.87662, 3,    6984.43,  117.7,   0.87662
"SCN_CN15_9121_CEI69B", 13.8, 1,    6983.33,   -2.3,   0.87648, 2,    6983.32, -122.3,   0.87648, 3,    6983.32,  117.7,   0.87648
"SCN_CN15_9119_CEI69B", 13.8, 1,    6981.97,   -2.3,   0.87631, 2,    6981.96, -122.3,   0.87631, 3,    6981.96,  117.7,   0.87631
"SCN_CN15_9276_CEI109", 13.8, 1,    6899.57,   -2.7,   0.86597, 2,    6899.56, -122.7,   0.86597, 3,    6899.56,  117.3,   0.86597
"SCN_CN15_9277_CEI109", 13.8, 1,    6898.46,   -2.7,   0.86583, 2,    6898.45, -122.7,   0.86583, 3,    6898.45,  117.3,   0.86583
"SCN_CN15_9118_CEI69B", 13.8, 1,    6980.69,   -2.3,   0.87615, 2,    6980.68, -122.3,   0.87615, 3,    6980.68,  117.7,   0.87615
"SCN_CN15_9114_CEI230_ATV", 13.8, 1,    6977.49,   -2.3,   0.87575, 2,    6977.47, -122.3,   0.87575, 3,    6977.47,  117.7,   0.87575
"SCN_CN15_9113_CEI230_ATV", 13.8, 1,    6975.15,   -2.3,   0.87546, 2,    6975.14, -122.3,   0.87546, 3,    6975.14,  117.7,   0.87546
"SCN_CN15_9112_CEI230_ATV", 13.8, 1,    6970.75,   -2.3,   0.87491, 2,    6970.74, -122.3,    0.8749, 3,    6970.74,  117.7,    0.8749
"SCN_CN15_9111_CEI230_ATV_S", 13.8, 1,    6970.39,   -2.3,   0.87486, 2,    6970.38, -122.3,   0.87486, 3,    6970.38,  117.7,   0.87486
"SCN_CN15_9110_CEI230_ATV", 13.8, 1,    6970.38,   -2.3,   0.87486, 2,    6970.36, -122.3,   0.87486, 3,    6970.36,  117.7,   0.87486
"SCN_CN15_9111_CEI230_ATV", 13.8, 1,    6970.39,   -2.3,   0.87486, 2,    6970.38, -122.3,   0.87486, 3,    6970.38,  117.7,   0.87486
"SCN_CN15_9109_CEI230_ATV", 13.8, 1,    6970.36,   -2.3,   0.87486, 2,    6970.35, -122.3,   0.87486, 3,    6970.35,  117.7,   0.87486
"SCN_CN15_9108_CEI230_ATV", 13.8, 1,    6970.35,   -2.3,   0.87486, 2,    6970.34, -122.3,   0.87485, 3,    6970.34,  117.7,   0.87485
"SCN_CN15_9107_CEI230_ATV", 13.8, 1,    6970.34,   -2.3,   0.87485, 2,    6970.33, -122.3,   0.87485, 3,    6970.33,  117.7,   0.87485
"SCN_CN15_9106_CEI230_ATV", 13.8, 1,    6970.34,   -2.3,   0.87485, 2,    6970.32, -122.3,   0.87485, 3,    6970.32,  117.7,   0.87485
"SCN_CN15_9278_CEI109", 13.8, 1,    6897.48,   -2.7,   0.86571, 2,    6897.47, -122.7,   0.86571, 3,    6897.47,  117.3,   0.86571
"SCN_CN15_9104_CEI230_ATV", 13.8, 1,    6970.33,   -2.3,   0.87485, 2,    6970.32, -122.3,   0.87485, 3,    6970.32,  117.7,   0.87485
"SCN_CN15_9105_CEI230_ATV", 13.8, 1,    6970.32,   -2.3,   0.87485, 2,    6970.31, -122.3,   0.87485, 3,    6970.31,  117.7,   0.87485
"SCN_CN15_9103_CEI230_ATV", 13.8, 1,    6970.31,   -2.3,   0.87485, 2,     6970.3, -122.3,   0.87485, 3,     6970.3,  117.7,   0.87485
"SCN_CN15_9102_CEI230_ATV", 13.8, 1,    6970.31,   -2.3,   0.87485, 2,     6970.3, -122.3,   0.87485, 3,    6970.29,  117.7,   0.87485
"SCN_CN15_9100_CEI230_ATV", 13.8, 1,     6970.3,   -2.3,   0.87485, 2,    6970.29, -122.3,   0.87485, 3,    6970.29,  117.7,   0.87485
"SCN_CN15_9099_CEI230_ATV", 13.8, 1,    6970.29,   -2.3,   0.87485, 2,    6970.28, -122.3,   0.87485, 3,    6970.28,  117.7,   0.87485
"SCN_CN15_9098_CEI230_ATV", 13.8, 1,    6970.29,   -2.3,   0.87485, 2,    6970.28, -122.3,   0.87485, 3,    6970.27,  117.7,   0.87485
"SCN_CN15_9097_CEI230_ATV", 13.8, 1,    6970.28,   -2.3,   0.87485, 2,    6970.27, -122.3,   0.87484, 3,    6970.27,  117.7,   0.87484
"SCN_CN15_9096_CEI230_ATV", 13.8, 1,    6970.27,   -2.3,   0.87485, 2,    6970.26, -122.3,   0.87484, 3,    6970.26,  117.7,   0.87484
"SCN_CN15_9094_CEI230_ATV", 13.8, 1,    6970.27,   -2.3,   0.87485, 2,    6970.26, -122.3,   0.87484, 3,    6970.26,  117.7,   0.87484
"SCN_CN15_9281_CEI109", 13.8, 1,    6896.75,   -2.7,   0.86562, 2,    6896.74, -122.7,   0.86562, 3,    6896.74,  117.3,   0.86562
"SCN_CN15_9095_CEI230_ATV", 13.8, 1,    6970.27,   -2.3,   0.87484, 2,    6970.26, -122.3,   0.87484, 3,    6970.26,  117.7,   0.87484
"SCN_CN15_9120_CEI230_ATV", 13.8, 1,    6965.85,   -2.3,   0.87429, 2,    6965.84, -122.3,   0.87429, 3,    6965.84,  117.7,   0.87429
"SCN_CN15_9115_CEI230_ATV", 13.8, 1,    6965.78,   -2.3,   0.87428, 2,    6965.77, -122.3,   0.87428, 3,    6965.76,  117.7,   0.87428
"SCN_CN15_9119_CEI230_ATV", 13.8, 1,    6961.43,   -2.3,   0.87374, 2,    6961.42, -122.3,   0.87373, 3,    6961.42,  117.7,   0.87373
"SCN_CN15_9331_CEI109", 13.8, 1,    6863.79,   -2.8,   0.86148, 2,    6863.77, -122.8,   0.86148, 3,    6863.77,  117.2,   0.86148
"SCN_CN15_9332_CEI109", 13.8, 1,     6863.6,   -2.8,   0.86146, 2,    6863.59, -122.8,   0.86146, 3,    6863.59,  117.2,   0.86146
"SCN_CN15_9118_CEI230_ATV", 13.8, 1,    6957.08,   -2.3,   0.87319, 2,    6957.07, -122.3,   0.87319, 3,    6957.07,  117.7,   0.87319
"SCN_CN15_9117_CEI230_ATV", 13.8, 1,    6952.57,   -2.3,   0.87262, 2,    6952.55, -122.3,   0.87262, 3,    6952.55,  117.7,   0.87262
"SCN_CN15_9116_CEI230_ATV", 13.8, 1,    6948.28,   -2.3,   0.87209, 2,    6948.27, -122.3,   0.87208, 3,    6948.27,  117.7,   0.87208
"SCN_CN15_9014_CEIRJ003", 13.8, 1,    6944.17,   -2.3,   0.87157, 2,    6944.16, -122.3,   0.87157, 3,    6944.16,  117.7,   0.87157
"SCN_CN15_9002_CEI075", 13.8, 1,    6943.66,   -2.3,    0.8715, 2,    6943.65, -122.3,    0.8715, 3,    6943.64,  117.7,    0.8715
"SCN_CN15_9003_CEI075", 13.8, 1,    6943.11,   -2.3,   0.87144, 2,     6943.1, -122.3,   0.87144, 3,     6943.1,  117.7,   0.87143
"SCN_CN15_9282_CEI109", 13.8, 1,    6896.06,   -2.7,   0.86553, 2,    6896.05, -122.7,   0.86553, 3,    6896.05,  117.3,   0.86553
"SCN_CN15_9004_CEI075", 13.8, 1,    6942.51,   -2.3,   0.87136, 2,     6942.5, -122.3,   0.87136, 3,     6942.5,  117.7,   0.87136
"SCN_CN15_9052_CEIRJ006_ATV", 13.8, 1,     6943.1,   -2.3,   0.87144, 2,    6943.09, -122.3,   0.87143, 3,    6943.09,  117.7,   0.87143
"SCN_CN15_9005_CEI075", 13.8, 1,    6941.88,   -2.3,   0.87128, 2,    6941.87, -122.3,   0.87128, 3,    6941.86,  117.7,   0.87128
"SCN_CN15_9006_CEI075", 13.8, 1,    6941.12,   -2.3,   0.87119, 2,    6941.11, -122.3,   0.87119, 3,    6941.11,  117.7,   0.87119
"SCN_CN15_9007_CEI075", 13.8, 1,    6940.55,   -2.3,   0.87111, 2,    6940.54, -122.3,   0.87111, 3,    6940.53,  117.7,   0.87111
"SCN_CN15_9008_CEI075", 13.8, 1,    6939.83,   -2.3,   0.87102, 2,    6939.82, -122.3,   0.87102, 3,    6939.81,  117.7,   0.87102
"SCN_CN15_9009_CEI075", 13.8, 1,    6939.12,   -2.3,   0.87094, 2,    6939.11, -122.3,   0.87093, 3,     6939.1,  117.7,   0.87093
"SCN_CN15_9169_CEI230_ATV", 13.8, 1,    6939.11,   -2.3,   0.87093, 2,     6939.1, -122.3,   0.87093, 3,     6939.1,  117.7,   0.87093
"SCN_CN15_9010_CEI075", 13.8, 1,    6939.01,   -2.3,   0.87092, 2,       6939, -122.3,   0.87092, 3,       6939,  117.7,   0.87092
"SCN_CN15_9011_CEI075", 13.8, 1,     6938.9,   -2.3,   0.87091, 2,    6938.89, -122.3,   0.87091, 3,    6938.88,  117.7,   0.87091
"SCN_CN15_9012_CEI075", 13.8, 1,    6938.79,   -2.3,   0.87089, 2,    6938.78, -122.3,   0.87089, 3,    6938.77,  117.7,   0.87089
"SCN_CN15_9283_CEI109", 13.8, 1,    6895.02,   -2.7,    0.8654, 2,    6895.01, -122.7,    0.8654, 3,    6895.01,  117.3,    0.8654
"SCN_CN15_9013_CEI075", 13.8, 1,    6938.63,   -2.3,   0.87087, 2,    6938.62, -122.3,   0.87087, 3,    6938.62,  117.7,   0.87087
"SCN_CN15_9014_CEI075", 13.8, 1,    6938.48,   -2.4,   0.87086, 2,    6938.47, -122.4,   0.87085, 3,    6938.47,  117.6,   0.87085
"SCN_CN15_9015_CEI075", 13.8, 1,    6938.34,   -2.4,   0.87084, 2,    6938.33, -122.4,   0.87084, 3,    6938.32,  117.6,   0.87084
"SCN_CN15_9016_CEI075", 13.8, 1,    6938.19,   -2.4,   0.87082, 2,    6938.18, -122.4,   0.87082, 3,    6938.17,  117.6,   0.87082
"SCN_CN15_9017_CEI075", 13.8, 1,    6938.05,   -2.4,    0.8708, 2,    6938.03, -122.4,    0.8708, 3,    6938.03,  117.6,    0.8708
"SCN_CN15_9018_CEI075", 13.8, 1,     6937.9,   -2.4,   0.87078, 2,    6937.88, -122.4,   0.87078, 3,    6937.88,  117.6,   0.87078
"SCN_CN15_9019_CEI075", 13.8, 1,    6937.82,   -2.4,   0.87077, 2,    6937.81, -122.4,   0.87077, 3,     6937.8,  117.6,   0.87077
"SCN_CN15_9020_CEI075", 13.8, 1,    6937.74,   -2.4,   0.87076, 2,    6937.73, -122.4,   0.87076, 3,    6937.73,  117.6,   0.87076
"SCN_CN15_9022_CEI075", 13.8, 1,    6937.61,   -2.4,   0.87075, 2,     6937.6, -122.4,   0.87074, 3,    6937.59,  117.6,   0.87074
"SCN_CN15_9023_CEI075", 13.8, 1,    6937.49,   -2.4,   0.87073, 2,    6937.48, -122.4,   0.87073, 3,    6937.48,  117.6,   0.87073
"SCN_CN15_9284_CEI109", 13.8, 1,    6894.21,   -2.7,    0.8653, 2,    6894.19, -122.7,    0.8653, 3,    6894.19,  117.3,    0.8653
"SCN_CN15_9024_CEI075", 13.8, 1,    6937.34,   -2.4,   0.87071, 2,    6937.33, -122.4,   0.87071, 3,    6937.33,  117.6,   0.87071
"SCN_CN15_9025_CEI075", 13.8, 1,    6937.21,   -2.4,    0.8707, 2,     6937.2, -122.4,   0.87069, 3,     6937.2,  117.6,   0.87069
"SCN_CN15_9072_CEI230_ATV", 13.8, 1,     6937.2,   -2.4,   0.87069, 2,    6937.19, -122.4,   0.87069, 3,    6937.19,  117.6,   0.87069
"SCN_CN15_9028_CEI075", 13.8, 1,    6936.91,   -2.4,   0.87066, 2,     6936.9, -122.4,   0.87066, 3,    6936.89,  117.6,   0.87066
"SCN_CN15_9029_CEI075", 13.8, 1,    6936.84,   -2.4,   0.87065, 2,    6936.83, -122.4,   0.87065, 3,    6936.82,  117.6,   0.87065
"SCN_CN15_9027_CEI075", 13.8, 1,    6936.98,   -2.4,   0.87067, 2,    6936.96, -122.4,   0.87066, 3,    6936.96,  117.6,   0.87066
"SCN_CN15_9026_CEI075", 13.8, 1,    6937.09,   -2.4,   0.87068, 2,    6937.08, -122.4,   0.87068, 3,    6937.08,  117.6,   0.87068
"SCN_CN15_9030_CEI075", 13.8, 1,    6936.81,   -2.4,   0.87065, 2,     6936.8, -122.4,   0.87064, 3,     6936.8,  117.6,   0.87064
"SCN_CN15_9074_CEI230_ATV", 13.8, 1,    6936.72,   -2.4,   0.87063, 2,    6936.71, -122.4,   0.87063, 3,    6936.71,  117.6,   0.87063
"SCN_CN15_9075_CEI230_ATV", 13.8, 1,    6936.67,   -2.4,   0.87063, 2,    6936.66, -122.4,   0.87063, 3,    6936.65,  117.6,   0.87063
"SCN_CN15_9292_CEI109_S", 13.8, 1,    6892.99,   -2.7,   0.86515, 2,    6892.98, -122.7,   0.86514, 3,    6892.98,  117.3,   0.86514
"SCN_CN15_9076_CEI230_ATV_S", 13.8, 1,    6936.63,   -2.4,   0.87062, 2,    6936.62, -122.4,   0.87062, 3,    6936.62,  117.6,   0.87062
"SCN_CN15_9076_CEI230_ATV", 13.8, 1,    6936.63,   -2.4,   0.87062, 2,    6936.62, -122.4,   0.87062, 3,    6936.62,  117.6,   0.87062
"SCN_CN15_9079_CEI230_ATV", 13.8, 1,    6936.59,   -2.4,   0.87062, 2,    6936.58, -122.4,   0.87062, 3,    6936.58,  117.6,   0.87062
"SCN_CN15_9078_CEI230_ATV", 13.8, 1,    6936.55,   -2.4,   0.87061, 2,    6936.54, -122.4,   0.87061, 3,    6936.53,  117.6,   0.87061
"SCN_CN15_9077_CEI230_ATV", 13.8, 1,    6936.58,   -2.4,   0.87062, 2,    6936.57, -122.4,   0.87062, 3,    6936.57,  117.6,   0.87061
"SCN_CN15_9080_CEI230_ATV", 13.8, 1,    6936.52,   -2.4,   0.87061, 2,    6936.51, -122.4,   0.87061, 3,    6936.51,  117.6,   0.87061
"SCN_CN15_9081_CEI230_ATV", 13.8, 1,    6936.48,   -2.4,    0.8706, 2,    6936.46, -122.4,    0.8706, 3,    6936.46,  117.6,    0.8706
"SCN_CN15_9082_CEI230_ATV", 13.8, 1,    6936.47,   -2.4,    0.8706, 2,    6936.46, -122.4,    0.8706, 3,    6936.46,  117.6,    0.8706
"SCN_CN15_9084_CEI230_ATV", 13.8, 1,    6936.45,   -2.4,    0.8706, 2,    6936.44, -122.4,    0.8706, 3,    6936.44,  117.6,    0.8706
"SCN_CN15_9085_CEI230_ATV", 13.8, 1,    6936.43,   -2.4,    0.8706, 2,    6936.42, -122.4,    0.8706, 3,    6936.42,  117.6,    0.8706
"SCN_CN15_9086_CEI230_ATV", 13.8, 1,    6936.41,   -2.4,    0.8706, 2,     6936.4, -122.4,   0.87059, 3,     6936.4,  117.6,   0.87059
"SCN_CN15_9292_CEI109", 13.8, 1,    6892.99,   -2.7,   0.86515, 2,    6892.98, -122.7,   0.86514, 3,    6892.98,  117.3,   0.86514
"SCN_CN15_9423_CEI109", 13.8, 1,    6892.95,   -2.7,   0.86514, 2,    6892.94, -122.7,   0.86514, 3,    6892.94,  117.3,   0.86514
"SCN_CN15_9087_CEI230_ATV", 13.8, 1,     6936.4,   -2.4,   0.87059, 2,    6936.39, -122.4,   0.87059, 3,    6936.38,  117.6,   0.87059
"SCN_CN15_9083_CEI230_ATV", 13.8, 1,    6936.46,   -2.4,    0.8706, 2,    6936.45, -122.4,    0.8706, 3,    6936.44,  117.6,    0.8706
"SCN_CN15_9088_CEI230_ATV", 13.8, 1,    6936.44,   -2.4,    0.8706, 2,    6936.43, -122.4,    0.8706, 3,    6936.43,  117.6,    0.8706
"SCN_CN15_9090_CEI230_ATV", 13.8, 1,    6936.42,   -2.4,    0.8706, 2,    6936.41, -122.4,    0.8706, 3,    6936.41,  117.6,    0.8706
"SCN_CN15_9084_CEI148_ATV", 13.8, 1,    6855.27,   -2.8,   0.86041, 2,    6855.25, -122.8,   0.86041, 3,    6855.25,  117.2,   0.86041
"SCN_CN15_9083_CEI148_ATV", 13.8, 1,    6855.56,   -2.8,   0.86045, 2,    6855.54, -122.8,   0.86045, 3,    6855.54,  117.2,   0.86045
"SCN_CN15_9086_CEI148_ATV", 13.8, 1,    6855.04,   -2.8,   0.86038, 2,    6855.02, -122.8,   0.86038, 3,    6855.02,  117.2,   0.86038
"SCN_CN15_9100_CEI201_ATV", 13.8, 1,    6978.19,   -2.3,   0.87584, 2,    6978.17, -122.3,   0.87584, 3,    6978.17,  117.7,   0.87584
"SCN_CN15_9102_CEI201_ATV", 13.8, 1,    6978.21,   -2.3,   0.87584, 2,     6978.2, -122.3,   0.87584, 3,     6978.2,  117.7,   0.87584
"SCN_CN15_9087_CEI148_ATV", 13.8, 1,    6854.56,   -2.8,   0.86032, 2,    6854.55, -122.8,   0.86032, 3,    6854.55,  117.2,   0.86032
"SCN_CN15_9088_CEI148_ATV", 13.8, 1,    6854.55,   -2.8,   0.86032, 2,    6854.53, -122.8,   0.86032, 3,    6854.53,  117.2,   0.86032
"SCN_CN15_9090_CEI148_ATV", 13.8, 1,     6854.5,   -2.8,   0.86031, 2,    6854.49, -122.8,   0.86031, 3,    6854.49,  117.2,   0.86031
"SCN_CN15_9424_CEI109", 13.8, 1,     6892.9,   -2.7,   0.86513, 2,    6892.88, -122.7,   0.86513, 3,    6892.88,  117.3,   0.86513
"SCN_CN15_9034_CEI148A_ATV", 13.8, 1,    6854.26,   -2.8,   0.86028, 2,    6854.24, -122.8,   0.86028, 3,    6854.24,  117.2,   0.86028
"SCN_CN15_9033_CEI148A_ATV", 13.8, 1,    6853.98,   -2.8,   0.86025, 2,    6853.97, -122.8,   0.86025, 3,    6853.97,  117.2,   0.86025
"SCN_CN15_9035_CEI148A_ATV", 13.8, 1,    6853.97,   -2.8,   0.86025, 2,    6853.96, -122.8,   0.86025, 3,    6853.96,  117.2,   0.86025
"SCN_CN15_9031_CEI148A_ATV", 13.8, 1,    6853.69,   -2.8,   0.86021, 2,    6853.67, -122.8,   0.86021, 3,    6853.67,  117.2,   0.86021
"SCN_CN15_9030_CEI148A_ATV", 13.8, 1,    6853.42,   -2.8,   0.86018, 2,    6853.41, -122.8,   0.86018, 3,    6853.41,  117.2,   0.86018
"SCN_CN15_9029_CEI148A_ATV_S", 13.8, 1,     6853.4,   -2.8,   0.86018, 2,    6853.38, -122.8,   0.86017, 3,    6853.38,  117.2,   0.86017
"SCN_CN15_9028_CEI148A_ATV", 13.8, 1,    6853.39,   -2.8,   0.86017, 2,    6853.37, -122.8,   0.86017, 3,    6853.37,  117.2,   0.86017
"SCN_CN15_9029_CEI148A_ATV", 13.8, 1,     6853.4,   -2.8,   0.86018, 2,    6853.38, -122.8,   0.86017, 3,    6853.38,  117.2,   0.86017
"SCN_CN15_9032_CEI148A_ATV", 13.8, 1,    6853.38,   -2.8,   0.86017, 2,    6853.37, -122.8,   0.86017, 3,    6853.37,  117.2,   0.86017
"SCN_CN15_9078_CEI201_ATV", 13.8, 1,    6853.37,   -2.8,   0.86017, 2,    6853.35, -122.8,   0.86017, 3,    6853.35,  117.2,   0.86017
"SCN_CN15_9075_CEI201_ATV", 13.8, 1,    6853.35,   -2.8,   0.86017, 2,    6853.34, -122.8,   0.86017, 3,    6853.34,  117.2,   0.86017
"SCN_CN15_9425_CEI109", 13.8, 1,    6892.84,   -2.7,   0.86513, 2,    6892.83, -122.7,   0.86513, 3,    6892.83,  117.3,   0.86513
"SCN_CN15_9025_CEI148A_ATV", 13.8, 1,    6853.16,   -2.8,   0.86015, 2,    6853.15, -122.8,   0.86015, 3,    6853.15,  117.2,   0.86015
"SCN_CN15_9023_CEI148A_ATV_S", 13.8, 1,    6852.66,   -2.8,   0.86008, 2,    6852.65, -122.8,   0.86008, 3,    6852.65,  117.2,   0.86008
"SCN_CN15_9028_CEI69A", 13.8, 1,    6852.65,   -2.8,   0.86008, 2,    6852.64, -122.8,   0.86008, 3,    6852.64,  117.2,   0.86008
"SCN_CN15_9023_CEI148A_ATV", 13.8, 1,    6852.66,   -2.8,   0.86008, 2,    6852.65, -122.8,   0.86008, 3,    6852.65,  117.2,   0.86008
"SCN_CN15_9022_CEI148A_ATV", 13.8, 1,    6852.64,   -2.8,   0.86008, 2,    6852.63, -122.8,   0.86008, 3,    6852.62,  117.2,   0.86008
"SCN_CN15_9021_CEI148A_ATV", 13.8, 1,    6852.61,   -2.8,   0.86008, 2,     6852.6, -122.8,   0.86008, 3,     6852.6,  117.2,   0.86008
"SCN_CN15_9020_CEI148A_ATV_S", 13.8, 1,     6852.6,   -2.8,   0.86008, 2,    6852.58, -122.8,   0.86007, 3,    6852.58,  117.2,   0.86007
"SCN_CN15_9020_CEI148A_ATV", 13.8, 1,     6852.6,   -2.8,   0.86008, 2,    6852.58, -122.8,   0.86007, 3,    6852.58,  117.2,   0.86007
"SCN_CN15_9019_CEI148A_ATV", 13.8, 1,    6852.59,   -2.8,   0.86008, 2,    6852.58, -122.8,   0.86007, 3,    6852.58,  117.2,   0.86007
"SCN_CN15_9001_CEI148A_ATV", 13.8, 1,    6851.19,   -2.8,    0.8599, 2,    6851.17, -122.8,    0.8599, 3,    6851.17,  117.2,    0.8599
"SCN_CN15_9002_CEI148A_ATV", 13.8, 1,    6851.21,   -2.8,    0.8599, 2,     6851.2, -122.8,    0.8599, 3,     6851.2,  117.2,    0.8599
"SCN_CN15_9003_CEI148A_ATV", 13.8, 1,    6851.22,   -2.8,    0.8599, 2,    6851.21, -122.8,    0.8599, 3,    6851.21,  117.2,    0.8599
"SCN_CN15_9005_CEI148A_ATV", 13.8, 1,    6851.24,   -2.8,    0.8599, 2,    6851.22, -122.8,    0.8599, 3,    6851.22,  117.2,    0.8599
"SCN_CN15_9426_CEI109", 13.8, 1,     6892.8,   -2.7,   0.86512, 2,    6892.79, -122.7,   0.86512, 3,    6892.78,  117.3,   0.86512
"SCN_CN15_9004_CEI148A_ATV", 13.8, 1,    6851.25,   -2.8,   0.85991, 2,    6851.24, -122.8,    0.8599, 3,    6851.24,  117.2,    0.8599
"SCN_CN15_9143_CEI220_ATV", 13.8, 1,    6938.26,   -2.5,   0.87083, 2,    6938.25, -122.5,   0.87083, 3,    6938.25,  117.5,   0.87083
"SCN_CN15_9144_CEI220_ATV", 13.8, 1,    6938.23,   -2.5,   0.87082, 2,    6938.22, -122.5,   0.87082, 3,    6938.22,  117.5,   0.87082
"SCN_CN15_9006_CEI148A_ATV", 13.8, 1,    6851.28,   -2.8,   0.85991, 2,    6851.26, -122.8,   0.85991, 3,    6851.26,  117.2,   0.85991
"SCN_CN15_9007_CEI148A_ATV", 13.8, 1,     6851.3,   -2.8,   0.85991, 2,    6851.29, -122.8,   0.85991, 3,    6851.29,  117.2,   0.85991
"SCN_CN15_9008_CEI148A_ATV", 13.8, 1,    6851.35,   -2.8,   0.85992, 2,    6851.34, -122.8,   0.85992, 3,    6851.34,  117.2,   0.85992
"SCN_CN15_9010_CEI148A_ATV", 13.8, 1,    6851.43,   -2.8,   0.85993, 2,    6851.42, -122.8,   0.85993, 3,    6851.42,  117.2,   0.85993
"SCN_CN15_9009_CEI148A_ATV", 13.8, 1,    6851.35,   -2.8,   0.85992, 2,    6851.34, -122.8,   0.85992, 3,    6851.34,  117.2,   0.85992
"SCN_CN15_9011_CEI148A_ATV", 13.8, 1,    6851.48,   -2.8,   0.85994, 2,    6851.47, -122.8,   0.85993, 3,    6851.47,  117.2,   0.85993
"SCN_CN15_9012_CEI148A_ATV", 13.8, 1,    6851.53,   -2.8,   0.85994, 2,    6851.51, -122.8,   0.85994, 3,    6851.51,  117.2,   0.85994
"SCN_CN15_9013_CEI148A_ATV", 13.8, 1,     6851.6,   -2.8,   0.85995, 2,    6851.59, -122.8,   0.85995, 3,    6851.59,  117.2,   0.85995
"SCN_CN15_9014_CEI148A_ATV", 13.8, 1,     6851.7,   -2.8,   0.85996, 2,    6851.69, -122.8,   0.85996, 3,    6851.69,  117.2,   0.85996
"SCN_CN15_9015_CEI148A_ATV", 13.8, 1,    6851.81,   -2.8,   0.85998, 2,    6851.79, -122.8,   0.85997, 3,    6851.79,  117.2,   0.85997
"SCN_CN15_9427_CEI109", 13.8, 1,    6892.74,   -2.7,   0.86511, 2,    6892.73, -122.7,   0.86511, 3,    6892.73,  117.3,   0.86511
"SCN_CN15_9016_CEI148A_ATV", 13.8, 1,    6851.91,   -2.8,   0.85999, 2,     6851.9, -122.8,   0.85999, 3,    6851.89,  117.2,   0.85999
"SCN_CN15_9017_CEI148A_ATV", 13.8, 1,    6851.95,   -2.8,      0.86, 2,    6851.94, -122.8,   0.85999, 3,    6851.94,  117.2,   0.85999
"SCN_CN15_9018_CEI148A_ATV", 13.8, 1,    6852.01,   -2.8,      0.86, 2,       6852, -122.8,      0.86, 3,       6852,  117.2,      0.86
"SCN_CN15_9020_CEI69A", 13.8, 1,    6852.17,   -2.8,   0.86002, 2,    6852.15, -122.8,   0.86002, 3,    6852.15,  117.2,   0.86002
"SCN_CN15_9018_CEI148A_ATV_S", 13.8, 1,    6852.01,   -2.8,      0.86, 2,       6852, -122.8,      0.86, 3,       6852,  117.2,      0.86
"SCN_CN15_9019_CEI69A", 13.8, 1,    6852.11,   -2.8,   0.86002, 2,     6852.1, -122.8,   0.86001, 3,     6852.1,  117.2,   0.86001
"SCN_CN15_9018_CEI69A", 13.8, 1,    6852.07,   -2.8,   0.86001, 2,    6852.06, -122.8,   0.86001, 3,    6852.06,  117.2,   0.86001
"SCN_CN15_9017_CEI69A", 13.8, 1,    6852.04,   -2.8,   0.86001, 2,    6852.02, -122.8,      0.86, 3,    6852.02,  117.2,      0.86
"SCN_CN15_9016_CEI69A", 13.8, 1,    6852.03,   -2.8,      0.86, 2,    6852.02, -122.8,      0.86, 3,    6852.02,  117.2,      0.86
"SCN_CN15_9015_CEI69A", 13.8, 1,    6852.03,   -2.8,      0.86, 2,    6852.02, -122.8,      0.86, 3,    6852.02,  117.2,      0.86
"SCN_CN15_9428_CEI109", 13.8, 1,    6892.69,   -2.7,   0.86511, 2,    6892.67, -122.7,   0.86511, 3,    6892.67,  117.3,   0.86511
"SCN_CN15_9012_CEI69A_S", 13.8, 1,    6852.01,   -2.8,      0.86, 2,       6852, -122.8,      0.86, 3,       6852,  117.2,      0.86
"SCN_CN15_9012_CEI69A", 13.8, 1,    6852.01,   -2.8,      0.86, 2,       6852, -122.8,      0.86, 3,       6852,  117.2,      0.86
"SCN_CN15_9013_CEI69A", 13.8, 1,       6852,   -2.8,      0.86, 2,    6851.99, -122.8,      0.86, 3,    6851.99,  117.2,      0.86
"SCN_CN15_9014_CEI69A", 13.8, 1,       6852,   -2.8,      0.86, 2,    6851.98, -122.8,      0.86, 3,    6851.98,  117.2,      0.86
"SCN_CN15_9011_CEI69A", 13.8, 1,    6852.01,   -2.8,      0.86, 2,       6852, -122.8,      0.86, 3,       6852,  117.2,      0.86
"SCN_CN15_9073_CEIRJ006_ATV", 13.8, 1,    6854.48,   -2.8,   0.86031, 2,    6854.46, -122.8,   0.86031, 3,    6854.46,  117.2,   0.86031
"SCN_CN15_9091_CEI148_ATV", 13.8, 1,    6854.47,   -2.8,   0.86031, 2,    6854.46, -122.8,   0.86031, 3,    6854.46,  117.2,   0.86031
"SCN_CN15_9092_CEI148_ATV", 13.8, 1,    6854.47,   -2.8,   0.86031, 2,    6854.45, -122.8,   0.86031, 3,    6854.45,  117.2,   0.86031
"SCN_CN15_9089_CEI148_ATV", 13.8, 1,    6854.46,   -2.8,   0.86031, 2,    6854.45, -122.8,   0.86031, 3,    6854.45,  117.2,   0.86031
"SCN_CN15_9042_CEI69A", 13.8, 1,    6854.52,   -2.8,   0.86032, 2,     6854.5, -122.8,   0.86032, 3,     6854.5,  117.2,   0.86031
"SCN_CN15_9100_CEI072", 13.8, 1,    7456.16,   -1.3,   0.93583, 2,    7456.15, -121.3,   0.93583, 3,    7456.15,  118.7,   0.93583
"SCN_CN15_9101_CEI072", 13.8, 1,    7456.11,   -1.3,   0.93582, 2,    7456.11, -121.3,   0.93582, 3,    7456.11,  118.7,   0.93582
"SCN_CN15_9102_CEI072", 13.8, 1,    7456.07,   -1.3,   0.93582, 2,    7456.07, -121.3,   0.93582, 3,    7456.07,  118.7,   0.93582
"SCN_CN15_9103_CEI072", 13.8, 1,    7456.03,   -1.3,   0.93581, 2,    7456.02, -121.3,   0.93581, 3,    7456.02,  118.7,   0.93581
"SCN_CN15_9104_CEI072", 13.8, 1,    7455.99,   -1.3,   0.93581, 2,    7455.98, -121.3,   0.93581, 3,    7455.98,  118.7,   0.93581
"SCN_CN15_9105_CEI072", 13.8, 1,    7455.94,   -1.3,    0.9358, 2,    7455.94, -121.3,    0.9358, 3,    7455.94,  118.7,    0.9358
"SCN_CN15_9491_CEI109", 13.8, 1,    6864.19,   -2.8,   0.86153, 2,    6864.18, -122.8,   0.86153, 3,    6864.18,  117.2,   0.86153
"SCN_CN15_9492_CEI109", 13.8, 1,    6864.13,   -2.8,   0.86152, 2,    6864.12, -122.8,   0.86152, 3,    6864.12,  117.2,   0.86152
"SCN_CN15_9106_CEI072", 13.8, 1,     7455.9,   -1.3,    0.9358, 2,     7455.9, -121.3,    0.9358, 3,     7455.9,  118.7,    0.9358
"SCN_CN15_9107_CEI072", 13.8, 1,    7455.82,   -1.3,   0.93579, 2,    7455.81, -121.3,   0.93579, 3,    7455.81,  118.7,   0.93579
"SCN_CN15_9108_CEI072", 13.8, 1,    7455.75,   -1.3,   0.93578, 2,    7455.75, -121.3,   0.93578, 3,    7455.75,  118.7,   0.93578
"SCN_CN15_9109_CEI072", 13.8, 1,    7455.72,   -1.3,   0.93577, 2,    7455.71, -121.3,   0.93577, 3,    7455.71,  118.7,   0.93577
"SCN_CN15_9110_CEI072", 13.8, 1,    7455.68,   -1.3,   0.93577, 2,    7455.68, -121.3,   0.93577, 3,    7455.68,  118.7,   0.93577
"SCN_CN15_9111_CEI072", 13.8, 1,    7455.64,   -1.3,   0.93576, 2,    7455.63, -121.3,   0.93576, 3,    7455.63,  118.7,   0.93576
"SCN_CN15_9112_CEI072", 13.8, 1,     7455.6,   -1.3,   0.93576, 2,    7455.59, -121.3,   0.93576, 3,    7455.59,  118.7,   0.93576
"SCN_CN15_9113_CEI072", 13.8, 1,    7455.55,   -1.3,   0.93575, 2,    7455.54, -121.3,   0.93575, 3,    7455.54,  118.7,   0.93575
...
"SCN_CN15_592-0899-22", 13.8, 1,    7042.16,   -2.2,   0.88387, 2,    7042.16, -122.2,   0.88387, 3,    7042.15,  117.8,   0.88387
"SCN_CN15_592-0899-22_S", 13.8, 1,    7042.16,   -2.2,   0.88387, 2,    7042.16, -122.2,   0.88387, 3,    7042.15,  117.8,   0.88387
"SCN_CN15_9013_CEI69B", 13.8, 1,    7050.35,   -2.1,    0.8849, 2,    7050.34, -122.1,   0.88489, 3,    7050.34,  117.9,   0.88489
"SCN_CN15_9015_CEI69B_S", 13.8, 1,    7046.91,   -2.1,   0.88446, 2,     7046.9, -122.1,   0.88446, 3,     7046.9,  117.9,   0.88446
"SCN_CN15_9012_CEI69B", 13.8, 1,    7054.48,   -2.1,   0.88541, 2,    7054.47, -122.1,   0.88541, 3,    7054.47,  117.9,   0.88541
"SCN_CN15_9011_CEI69B", 13.8, 1,    7058.54,   -2.1,   0.88592, 2,    7058.53, -122.1,   0.88592, 3,    7058.53,  117.9,   0.88592
"SCN_CN15_9162_CEI068", 13.8, 1,    7063.64,   -2.1,   0.88656, 2,    7063.63, -122.1,   0.88656, 3,    7063.62,  117.9,   0.88656
"SCN_CN15_9163_CEI068", 13.8, 1,    7068.98,   -2.1,   0.88723, 2,    7068.97, -122.1,   0.88723, 3,    7068.97,  117.9,   0.88723
"SCN_CN15_9164_CEI068", 13.8, 1,    7078.37,   -2.1,   0.88841, 2,    7078.37, -122.1,   0.88841, 3,    7078.36,  117.9,   0.88841
"SCN_CN15_9451_CEI109", 13.8, 1,    6892.28,   -2.7,   0.86506, 2,    6892.27, -122.7,   0.86506, 3,    6892.27,  117.3,   0.86506
"SCN_CN15_9169_CEI068", 13.8, 1,    7087.41,   -2.1,   0.88955, 2,     7087.4, -122.1,   0.88955, 3,     7087.4,  117.9,   0.88955
"SCN_CN15_9170_CEI068", 13.8, 1,    7087.49,   -2.1,   0.88956, 2,    7087.48, -122.1,   0.88956, 3,    7087.48,  117.9,   0.88956
"SCN_CN15_9170_CEI068_S", 13.8, 1,    7087.49,   -2.1,   0.88956, 2,    7087.48, -122.1,   0.88956, 3,    7087.48,  117.9,   0.88956
"SCN_CN15_9171_CEI068", 13.8, 1,    7097.18,   -2.0,   0.89077, 2,    7097.18, -122.0,   0.89077, 3,    7097.17,  118.0,   0.89077
"SCN_CN15_9172_CEI068", 13.8, 1,    7107.92,   -2.0,   0.89212, 2,    7107.91, -122.0,   0.89212, 3,    7107.91,  118.0,   0.89212
"SCN_CN15_9182_CEI068", 13.8, 1,    7120.39,   -2.0,   0.89369, 2,    7120.38, -122.0,   0.89369, 3,    7120.38,  118.0,   0.89369
"SCN_CN15_9181_CEI068", 13.8, 1,    7120.37,   -2.0,   0.89368, 2,    7120.36, -122.0,   0.89368, 3,    7120.36,  118.0,   0.89368
"SCN_CN15_9182_CEI068_S", 13.8, 1,    7120.39,   -2.0,   0.89369, 2,    7120.38, -122.0,   0.89369, 3,    7120.38,  118.0,   0.89369
"SCN_CN15_9183_CEI068", 13.8, 1,    7133.41,   -1.9,   0.89532, 2,     7133.4, -121.9,   0.89532, 3,     7133.4,  118.1,   0.89532
"SCN_CN15_9183_CEI068_S", 13.8, 1,    7133.41,   -1.9,   0.89532, 2,     7133.4, -121.9,   0.89532, 3,     7133.4,  118.1,   0.89532
"SCN_CN15_9186_CEI068", 13.8, 1,    7143.07,   -1.9,   0.89653, 2,    7143.06, -121.9,   0.89653, 3,    7143.06,  118.1,   0.89653
"SCN_CN15_9107_CEI068", 13.8, 1,    7149.05,   -1.9,   0.89728, 2,    7149.04, -121.9,   0.89728, 3,    7149.04,  118.1,   0.89728
"SCN_CN15_9450_CEI109", 13.8, 1,    6892.26,   -2.7,   0.86505, 2,    6892.25, -122.7,   0.86505, 3,    6892.25,  117.3,   0.86505
"SCN_CN15_9103_CEI068", 13.8, 1,    7155.63,   -1.9,   0.89811, 2,    7155.63, -121.9,   0.89811, 3,    7155.63,  118.1,   0.89811
"SCN_CN15_9092_CEI068", 13.8, 1,    7155.53,   -1.9,    0.8981, 2,    7155.52, -121.9,    0.8981, 3,    7155.52,  118.1,    0.8981
"SCN_CN15_9091_CEI068", 13.8, 1,    7155.41,   -1.9,   0.89808, 2,    7155.41, -121.9,   0.89808, 3,    7155.41,  118.1,   0.89808
"SCN_CN15_9090_CEI068", 13.8, 1,     7155.2,   -1.9,   0.89806, 2,    7155.19, -121.9,   0.89805, 3,    7155.19,  118.1,   0.89805
"SCN_CN15_9089_CEI068_S", 13.8, 1,    7155.07,   -1.9,   0.89804, 2,    7155.06, -121.9,   0.89804, 3,    7155.06,  118.1,   0.89804
"SCN_CN15_9086_CEI068", 13.8, 1,     7154.9,   -1.9,   0.89802, 2,    7154.89, -121.9,   0.89802, 3,    7154.89,  118.1,   0.89802
"SCN_CN15_9085_CEI068", 13.8, 1,    7154.67,   -1.9,   0.89799, 2,    7154.66, -121.9,   0.89799, 3,    7154.66,  118.1,   0.89799
"SCN_CN15_9086_CEI068_S", 13.8, 1,     7154.9,   -1.9,   0.89802, 2,    7154.89, -121.9,   0.89802, 3,    7154.89,  118.1,   0.89802
"SCN_CN15_9082_CEI068", 13.8, 1,    7154.41,   -1.9,   0.89796, 2,     7154.4, -121.9,   0.89796, 3,     7154.4,  118.1,   0.89796
"SCN_CN15_9081_CEI068", 13.8, 1,    7154.14,   -1.9,   0.89792, 2,    7154.13, -121.9,   0.89792, 3,    7154.13,  118.1,   0.89792
"SCN_CN15_9080_CEI068", 13.8, 1,    7153.88,   -1.9,   0.89789, 2,    7153.87, -121.9,   0.89789, 3,    7153.87,  118.1,   0.89789
"SCN_CN15_9026_CEI201_ATV", 13.8, 1,    6861.22,   -2.8,   0.86116, 2,    6861.21, -122.8,   0.86116, 3,    6861.21,  117.2,   0.86116
"SCN_CN15_9027_CEI201_ATV", 13.8, 1,    6861.34,   -2.8,   0.86117, 2,    6861.32, -122.8,   0.86117, 3,    6861.32,  117.2,   0.86117
"SCN_CN15_9449_CEI109", 13.8, 1,    6892.25,   -2.7,   0.86505, 2,    6892.23, -122.7,   0.86505, 3,    6892.23,  117.3,   0.86505
"SCN_CN15_9079_CEI068", 13.8, 1,    7153.62,   -1.9,   0.89786, 2,    7153.61, -121.9,   0.89786, 3,    7153.61,  118.1,   0.89786
"SCN_CN15_9078_CEI068", 13.8, 1,    7153.36,   -1.9,   0.89783, 2,    7153.35, -121.9,   0.89782, 3,    7153.35,  118.1,   0.89782
"SCN_CN15_9077_CEI068", 13.8, 1,     7153.1,   -1.9,   0.89779, 2,    7153.09, -121.9,   0.89779, 3,    7153.09,  118.1,   0.89779
"SCN_CN15_9076_CEI068", 13.8, 1,    7152.86,   -1.9,   0.89776, 2,    7152.85, -121.9,   0.89776, 3,    7152.85,  118.1,   0.89776
"SCN_CN15_9075_CEI068", 13.8, 1,    7152.61,   -1.9,   0.89773, 2,     7152.6, -121.9,   0.89773, 3,     7152.6,  118.1,   0.89773
"SCN_CN15_9074_CEI068", 13.8, 1,    7152.36,   -1.9,    0.8977, 2,    7152.36, -121.9,    0.8977, 3,    7152.35,  118.1,    0.8977
"SCN_CN15_9073_CEI068", 13.8, 1,    7152.11,   -1.9,   0.89767, 2,     7152.1, -121.9,   0.89767, 3,     7152.1,  118.1,   0.89767
"SCN_CN15_9072_CEI068", 13.8, 1,    7151.86,   -1.9,   0.89764, 2,    7151.85, -121.9,   0.89764, 3,    7151.85,  118.1,   0.89764
"SCN_CN15_9071_CEI068", 13.8, 1,    7151.63,   -1.9,   0.89761, 2,    7151.62, -121.9,   0.89761, 3,    7151.62,  118.1,   0.89761
"SCN_CN15_9070_CEI068", 13.8, 1,    7151.45,   -1.9,   0.89759, 2,    7151.44, -121.9,   0.89758, 3,    7151.44,  118.1,   0.89758
...